test/data/three_phase/just_two_transformers/result.csv
# result.csv run at 2000-01-01 00:00:00 EST on 8 powerflow objects (not all are nodes)
node_name,voltA_real,voltA_imag,voltB_real,voltB_imag,voltC_real,voltC_imag
node1,7200.000000,0.000000,-3600.000000,-6235.382907,-3600.000000,6235.382907
node2,2296.390489,-119.219539,-1251.442394,-1929.122731,-1044.948095,2048.342270
load1,6567.302594,-714.744064,-3902.637814,-5330.078849,-2664.664781,6044.822913
